#======================================================================

# CRYSTAL DATA

#----------------------------------------------------------------------

data_VESTA_phase_1


_chemical_name_common                  'Mg  O  H                              '
_cell_length_a                         6.39527
_cell_length_b                         6.39527
_cell_length_c                         45.82592
_cell_angle_alpha                      90
_cell_angle_beta                       90
_cell_angle_gamma                      60.00000
_space_group_name_H-M_alt              'P 1'
_space_group_IT_number                 1

loop_
_space_group_symop_operation_xyz
   'x, y, z'

loop_
   _atom_site_label
   _atom_site_occupancy
   _atom_site_fract_x
   _atom_site_fract_y
   _atom_site_fract_z
   _atom_site_adp_type
   _atom_site_B_iso_or_equiv
   _atom_site_type_symbol
   Mg1        1.0    -0.000000      0.000000      0.216129     Biso  1.000000 Mg
   Mg2        1.0     0.500000     -0.000000      0.216129     Biso  1.000000 Mg
   Mg3        1.0    -0.000000      0.500000      0.216129     Biso  1.000000 Mg
   Mg4        1.0     0.500000      0.500000      0.216129     Biso  1.000000 Mg
   Mg5        1.0     0.833333      0.333333      0.273352     Biso  1.000000 Mg
   Mg6        1.0     0.333333      0.333333      0.273352     Biso  1.000000 Mg
   Mg7        1.0     0.833333      0.833333      0.273352     Biso  1.000000 Mg
   Mg8        1.0     0.333333      0.833333      0.273352     Biso  1.000000 Mg
   Mg9        1.0     0.000000     -0.000000      0.329932     Biso  1.000000 Mg
   Mg10       1.0     0.500000      0.000000      0.329932     Biso  1.000000 Mg
   Mg11       1.0    -0.000000      0.500000      0.329932     Biso  1.000000 Mg
   Mg12       1.0     0.500000      0.500000      0.329932     Biso  1.000000 Mg
   Mg13       1.0     0.833333      0.333333      0.386393     Biso  1.000000 Mg
   Mg14       1.0     0.333333      0.333333      0.386393     Biso  1.000000 Mg
   Mg15       1.0     0.833333      0.833333      0.386393     Biso  1.000000 Mg
   Mg16       1.0     0.333333      0.833333      0.386393     Biso  1.000000 Mg
   Mg17       1.0    -0.000000     -0.000000      0.442750     Biso  1.000000 Mg
   Mg18       1.0     0.500000      0.000000      0.442750     Biso  1.000000 Mg
   Mg19       1.0     0.000000      0.500000      0.442750     Biso  1.000000 Mg
   Mg20       1.0     0.500000      0.500000      0.442750     Biso  1.000000 Mg
   Mg21       1.0     0.833333      0.333333      0.499185     Biso  1.000000 Mg
   Mg22       1.0     0.333333      0.333333      0.499185     Biso  1.000000 Mg
   Mg23       1.0     0.833333      0.833333      0.499185     Biso  1.000000 Mg
   Mg24       1.0     0.333333      0.833333      0.499185     Biso  1.000000 Mg
   Mg25       1.0    -0.000000      0.000000      0.555595     Biso  1.000000 Mg
   Mg26       1.0     0.500000     -0.000000      0.555595     Biso  1.000000 Mg
   Mg27       1.0    -0.000000      0.500000      0.555595     Biso  1.000000 Mg
   Mg28       1.0     0.500000      0.500000      0.555595     Biso  1.000000 Mg
   Mg29       1.0     0.833333      0.333333      0.612010     Biso  1.000000 Mg
   Mg30       1.0     0.333333      0.333333      0.612010     Biso  1.000000 Mg
   Mg31       1.0     0.833333      0.833333      0.612010     Biso  1.000000 Mg
   Mg32       1.0     0.333333      0.833333      0.612010     Biso  1.000000 Mg
   Mg33       1.0     0.000000      0.000000      0.668325     Biso  1.000000 Mg
   Mg34       1.0     0.500000      0.000000      0.668325     Biso  1.000000 Mg
   Mg35       1.0     0.000000      0.500000      0.668325     Biso  1.000000 Mg
   Mg36       1.0     0.500000      0.500000      0.668325     Biso  1.000000 Mg
   Mg37       1.0     0.833333      0.333333      0.724919     Biso  1.000000 Mg
   Mg38       1.0     0.333333      0.333333      0.724919     Biso  1.000000 Mg
   Mg39       1.0     0.833333      0.833333      0.724919     Biso  1.000000 Mg
   Mg40       1.0     0.333333      0.833333      0.724919     Biso  1.000000 Mg
   Mg41       1.0     0.000000     -0.000000      0.785768     Biso  1.000000 Mg
   Mg42       1.0     0.500000     -0.000000      0.785768     Biso  1.000000 Mg
   Mg43       1.0     0.000000      0.500000      0.785768     Biso  1.000000 Mg
   Mg44       1.0     0.500000      0.500000      0.785768     Biso  1.000000 Mg
   O1         1.0     0.333333      0.333333      0.786500     Biso  1.000000 O
   O2         1.0     0.333333      0.833333      0.786500     Biso  1.000000 O
   O3         1.0     0.833333      0.333333      0.786500     Biso  1.000000 O
   O4         1.0     0.833333      0.833333      0.786500     Biso  1.000000 O
   H1         1.0    -0.000000      0.000000      0.740133     Biso  1.000000 H
   H2         1.0    -0.000000      0.500000      0.740133     Biso  1.000000 H
   H3         1.0     0.500000      0.000000      0.740133     Biso  1.000000 H
   H4         1.0     0.500000      0.500000      0.740133     Biso  1.000000 H
