#======================================================================

# CRYSTAL DATA

#----------------------------------------------------------------------

data_VESTA_phase_1


_chemical_name_common                  'H2O'
_cell_length_a                         19.26000
_cell_length_b                         19.26030
_cell_length_c                         53.41300
_cell_angle_alpha                      90
_cell_angle_beta                       90
_cell_angle_gamma                      119.99900
_space_group_name_H-M_alt              'P 1'
_space_group_IT_number                 1

loop_
_space_group_symop_operation_xyz
   'x, y, z'

loop_
   _atom_site_label
   _atom_site_occupancy
   _atom_site_fract_x
   _atom_site_fract_y
   _atom_site_fract_z
   _atom_site_adp_type
   _atom_site_B_iso_or_equiv
   _atom_site_type_symbol
   H1         1.0     0.109836      0.096840      0.451393     Biso  1.000000 H
   H2         1.0     0.181711      0.083515      0.450854     Biso  1.000000 H
   H3         1.0     0.669170      0.164762      0.415344     Biso  1.000000 H
   H4         1.0     0.683513      0.115216      0.436093     Biso  1.000000 H
   H5         1.0     0.058874      0.269971      0.421950     Biso  1.000000 H
   H6         1.0     0.041690      0.217428      0.447846     Biso  1.000000 H
   H7         1.0     0.099476      0.493915      0.444931     Biso  1.000000 H
   H8         1.0     0.101738      0.451261      0.419341     Biso  1.000000 H
   H9         1.0     0.202341      0.293017      0.430684     Biso  1.000000 H
   H10        1.0     0.194819      0.204346      0.434070     Biso  1.000000 H
   H11        1.0     0.351072      0.487958      0.446666     Biso  1.000000 H
   H12        1.0     0.404928      0.475125      0.426113     Biso  1.000000 H
   H13        1.0     0.031276      0.076667      0.519200     Biso  1.000000 H
   H14        1.0     0.061172      0.052925      0.495696     Biso  1.000000 H
   H15        1.0    -0.061812      0.210622      0.502593     Biso  1.000000 H
   H16        1.0    -0.036353      0.294967      0.487279     Biso  1.000000 H
   H17        1.0     0.322063      0.375651      0.478069     Biso  1.000000 H
   H18        1.0     0.286905      0.286975      0.488502     Biso  1.000000 H
   H19        1.0     0.546541      0.113777      0.432125     Biso  1.000000 H
   H20        1.0     0.473429      0.074510      0.451738     Biso  1.000000 H
   H21        1.0    -0.008207      0.358281      0.447375     Biso  1.000000 H
   H22        1.0    -0.078178      0.269886      0.445465     Biso  1.000000 H
   H23        1.0     0.067295      0.189515      0.487805     Biso  1.000000 H
   H24        1.0     0.036683      0.248409      0.487523     Biso  1.000000 H
   H25        1.0     0.063272     -0.071645      0.495998     Biso  1.000000 H
   H26        1.0     0.084813     -0.033244      0.468639     Biso  1.000000 H
   H27        1.0     0.057017      0.469277      0.515797     Biso  1.000000 H
   H28        1.0    -0.017065      0.416421      0.533742     Biso  1.000000 H
   H29        1.0     0.283826      0.155295      0.495760     Biso  1.000000 H
   H30        1.0     0.207967      0.152581      0.485907     Biso  1.000000 H
   H31        1.0    -0.035993     -0.132980      0.459405     Biso  1.000000 H
   H32        1.0    -0.102725     -0.175365      0.439234     Biso  1.000000 H
   H33        1.0     0.113900      0.390655      0.543411     Biso  1.000000 H
   H34        1.0     0.049541      0.323791      0.525062     Biso  1.000000 H
   H35        1.0     0.376931      0.432431      0.539355     Biso  1.000000 H
   H36        1.0     0.462488      0.466335      0.523404     Biso  1.000000 H
   H37        1.0     0.222947     -0.053630      0.512542     Biso  1.000000 H
   H38        1.0     0.298765      0.024719      0.501759     Biso  1.000000 H
   H39        1.0    -0.039297      0.293957      0.568601     Biso  1.000000 H
   H40        1.0     0.030622      0.282527      0.561378     Biso  1.000000 H
   H41        1.0     0.292354      0.333804      0.548423     Biso  1.000000 H
   H42        1.0     0.293687      0.400993      0.564130     Biso  1.000000 H
   H43        1.0     0.297395     -0.042931      0.571766     Biso  1.000000 H
   H44        1.0     0.271039      0.010058      0.555676     Biso  1.000000 H
   H45        1.0    -0.062949      0.411838      0.575556     Biso  1.000000 H
   H46        1.0    -0.136395      0.331561      0.562005     Biso  1.000000 H
   H47        1.0     0.154176      0.294757      0.535215     Biso  1.000000 H
   H48        1.0     0.166974      0.233281      0.520388     Biso  1.000000 H
   H49        1.0     0.582011      0.222641      0.561433     Biso  1.000000 H
   H50        1.0     0.555139      0.135723      0.572499     Biso  1.000000 H
   H51        1.0     0.090580      0.556770      0.610344     Biso  1.000000 H
   H52        1.0     0.085360      0.476274      0.618060     Biso  1.000000 H
   H53        1.0     0.547372      0.654420      0.564508     Biso  1.000000 H
   H54        1.0     0.487310      0.585596      0.544740     Biso  1.000000 H
   H55        1.0     0.249674      0.170146      0.562494     Biso  1.000000 H
   H56        1.0     0.225614      0.143677      0.535745     Biso  1.000000 H
   H57        1.0     0.034303      0.280371      0.605704     Biso  1.000000 H
   H58        1.0     0.111271      0.305946      0.621909     Biso  1.000000 H
   H59        1.0     0.640510      0.722737      0.603904     Biso  1.000000 H
   H60        1.0     0.643815      0.643519      0.599299     Biso  1.000000 H
   H61        1.0     0.279081      0.063413      0.600812     Biso  1.000000 H
   H62        1.0     0.311282      0.155852      0.607249     Biso  1.000000 H
   H63        1.0     0.144866      0.181923      0.635923     Biso  1.000000 H
   H64        1.0     0.116893      0.195346      0.608826     Biso  1.000000 H
   H65        1.0     0.689472      0.786431      0.638666     Biso  1.000000 H
   H66        1.0     0.638040      0.825069      0.624133     Biso  1.000000 H
   H67        1.0     0.425221      0.151874      0.623509     Biso  1.000000 H
   H68        1.0     0.470385      0.170831      0.598784     Biso  1.000000 H
   H69        1.0     0.456262      0.874385      0.707631     Biso  1.000000 H
   H70        1.0     0.379489      0.796936      0.710310     Biso  1.000000 H
   H71        1.0     0.259409      0.236025      0.606119     Biso  1.000000 H
   H72        1.0     0.315214      0.287179      0.584795     Biso  1.000000 H
   H73        1.0     0.722780      0.028492      0.444655     Biso  1.000000 H
   H74        1.0     0.627693     -0.024746      0.443524     Biso  1.000000 H
   H75        1.0     0.914533      0.161745      0.425698     Biso  1.000000 H
   H76        1.0     0.858577      0.068743      0.430701     Biso  1.000000 H
   H77        1.0     0.689278      0.346017      0.442383     Biso  1.000000 H
   H78        1.0     0.704230      0.425291      0.427858     Biso  1.000000 H
   H79        1.0     0.484166      0.351802      0.434058     Biso  1.000000 H
   H80        1.0     0.590315      0.398322      0.434420     Biso  1.000000 H
   H81        1.0     0.793633      0.336560      0.432010     Biso  1.000000 H
   H82        1.0     0.882884      0.349367      0.433479     Biso  1.000000 H
   H83        1.0     0.849926      0.473287      0.470868     Biso  1.000000 H
   H84        1.0     0.879480      0.445184      0.446914     Biso  1.000000 H
   H85        1.0     0.732337      0.132416      0.503940     Biso  1.000000 H
   H86        1.0     0.724887      0.109087      0.475975     Biso  1.000000 H
   H87        1.0     0.469585      0.168599      0.444004     Biso  1.000000 H
   H88        1.0     0.423323      0.222748      0.443948     Biso  1.000000 H
   H89        1.0     0.769916      0.487181      0.498592     Biso  1.000000 H
   H90        1.0     0.706873      0.443635      0.475254     Biso  1.000000 H
   H91        1.0     0.879776      0.063182      0.506751     Biso  1.000000 H
   H92        1.0     0.831241      0.105068      0.497378     Biso  1.000000 H
   H93        1.0     0.352420      0.299370      0.457700     Biso  1.000000 H
   H94        1.0     0.344951      0.279205      0.428751     Biso  1.000000 H
   H95        1.0     0.631965      0.278855      0.479861     Biso  1.000000 H
   H96        1.0     0.541086      0.252859      0.486293     Biso  1.000000 H
   H97        1.0     0.812890     -0.023552      0.530206     Biso  1.000000 H
   H98        1.0     0.899770     -0.014145      0.529748     Biso  1.000000 H
   H99        1.0     0.533615      0.396301      0.508107     Biso  1.000000 H
   H100       1.0     0.451248      0.361392      0.493532     Biso  1.000000 H
   H101       1.0     0.756719      0.318092      0.474500     Biso  1.000000 H
   H102       1.0     0.701302      0.240060      0.458116     Biso  1.000000 H
   H103       1.0     0.574359     -0.105167      0.513479     Biso  1.000000 H
   H104       1.0     0.635633     -0.069331      0.490046     Biso  1.000000 H
   H105       1.0     0.386877      0.163288      0.506652     Biso  1.000000 H
   H106       1.0     0.396235      0.159791      0.475782     Biso  1.000000 H
   H107       1.0     0.788907      0.308000      0.520748     Biso  1.000000 H
   H108       1.0     0.869620      0.343454      0.506810     Biso  1.000000 H
   H109       1.0     0.658282      0.034014      0.527698     Biso  1.000000 H
   H110       1.0     0.603280      0.072524      0.523563     Biso  1.000000 H
   H111       1.0     0.637224      0.320978      0.581297     Biso  1.000000 H
   H112       1.0     0.634905      0.355230      0.552581     Biso  1.000000 H
   H113       1.0     0.724279      0.207412      0.549292     Biso  1.000000 H
   H114       1.0     0.721218      0.285941      0.557046     Biso  1.000000 H
   H115       1.0     0.756022      0.011637      0.559739     Biso  1.000000 H
   H116       1.0     0.691215     -0.072716      0.549256     Biso  1.000000 H
   H117       1.0     0.437794      0.162491      0.553397     Biso  1.000000 H
   H118       1.0     0.348748      0.133205      0.544549     Biso  1.000000 H
   H119       1.0     0.519434      0.121373      0.532259     Biso  1.000000 H
   H120       1.0     0.569522      0.154480      0.508220     Biso  1.000000 H
   H121       1.0     0.833765      0.137753      0.564017     Biso  1.000000 H
   H122       1.0     0.806425      0.139018      0.591984     Biso  1.000000 H
   H123       1.0     0.765438      0.667580      0.602628     Biso  1.000000 H
   H124       1.0     0.712011      0.579586      0.613069     Biso  1.000000 H
   H125       1.0     0.699707      0.206433      0.609041     Biso  1.000000 H
   H126       1.0     0.777331      0.266733      0.620874     Biso  1.000000 H
   H127       1.0     0.792813      0.153847      0.627620     Biso  1.000000 H
   H128       1.0     0.882539      0.198824      0.627017     Biso  1.000000 H
   H129       1.0     0.627987      0.443229      0.610567     Biso  1.000000 H
   H130       1.0     0.711202      0.469477      0.597959     Biso  1.000000 H
   H131       1.0     0.887286      0.530474      0.621675     Biso  1.000000 H
   H132       1.0     0.943967      0.493957      0.617885     Biso  1.000000 H
   H133       1.0     0.747236      0.003123      0.617650     Biso  1.000000 H
   H134       1.0     0.691726      0.016968      0.636618     Biso  1.000000 H
   H135       1.0     0.562932      0.274284      0.610834     Biso  1.000000 H
   H136       1.0     0.649182      0.301338      0.620841     Biso  1.000000 H
   H137       1.0     0.820618      0.583569      0.643913     Biso  1.000000 H
   H138       1.0     0.900630      0.645333      0.636425     Biso  1.000000 H
   H139       1.0     0.996776      0.254061      0.643698     Biso  1.000000 H
   H140       1.0     0.958371      0.157259      0.641273     Biso  1.000000 H
   H141       1.0     0.755331      0.704782      0.635395     Biso  1.000000 H
   H142       1.0     0.790469      0.744072      0.662784     Biso  1.000000 H
   H143       1.0     0.535697      0.140381      0.630558     Biso  1.000000 H
   H144       1.0     0.614554      0.152870      0.644473     Biso  1.000000 H
   H145       1.0     0.087441      0.597619      0.462255     Biso  1.000000 H
   H146       1.0     0.174383      0.629755      0.454597     Biso  1.000000 H
   H147       1.0     0.470876      0.660059      0.417180     Biso  1.000000 H
   H148       1.0     0.455017      0.593604      0.437038     Biso  1.000000 H
   H149       1.0     0.019218      0.765349      0.421183     Biso  1.000000 H
   H150       1.0    -0.027321      0.779302      0.442317     Biso  1.000000 H
   H151       1.0    -0.046501      1.013221      0.449134     Biso  1.000000 H
   H152       1.0    -0.012855      0.993201      0.424447     Biso  1.000000 H
   H153       1.0     0.211045      0.780723      0.429338     Biso  1.000000 H
   H154       1.0     0.148417      0.692186      0.432215     Biso  1.000000 H
   H155       1.0     0.199821      0.971201      0.437753     Biso  1.000000 H
   H156       1.0     0.139738      0.982133      0.422783     Biso  1.000000 H
   H157       1.0     0.173570      0.477226      0.483777     Biso  1.000000 H
   H158       1.0     0.206754      0.553622      0.499401     Biso  1.000000 H
   H159       1.0     0.049720      0.693879      0.487616     Biso  1.000000 H
   H160       1.0     0.058355      0.744212      0.463581     Biso  1.000000 H
   H161       1.0     0.346147      1.008698      0.455553     Biso  1.000000 H
   H162       1.0     0.347533      1.019640      0.425666     Biso  1.000000 H
   H163       1.0     0.203689      0.397884      0.456115     Biso  1.000000 H
   H164       1.0     0.158965      0.310403      0.464273     Biso  1.000000 H
   H165       1.0    -0.129987      0.682549      0.475237     Biso  1.000000 H
   H166       1.0    -0.204544      0.592785      0.477273     Biso  1.000000 H
   H167       1.0     0.262213      0.786637      0.469159     Biso  1.000000 H
   H168       1.0     0.178591      0.756266      0.479193     Biso  1.000000 H
   H169       1.0     0.290887      0.519863      0.515693     Biso  1.000000 H
   H170       1.0     0.378862      0.517007      0.512257     Biso  1.000000 H
   H171       1.0    -0.149584      0.676306      0.520122     Biso  1.000000 H
   H172       1.0    -0.122749      0.765549      0.519777     Biso  1.000000 H
   H173       1.0     0.261464      0.703014      0.499347     Biso  1.000000 H
   H174       1.0     0.328599      0.678133      0.510369     Biso  1.000000 H
   H175       1.0     0.313370      0.534008      0.475891     Biso  1.000000 H
   H176       1.0     0.295758      0.569350      0.452454     Biso  1.000000 H
   H177       1.0    -0.019966      0.648420      0.556230     Biso  1.000000 H
   H178       1.0    -0.054351      0.673045      0.532552     Biso  1.000000 H
   H179       1.0     0.440216      1.056501      0.495322     Biso  1.000000 H
   H180       1.0     0.427447      0.981666      0.479287     Biso  1.000000 H
   H181       1.0     0.096095      0.460295      0.580535     Biso  1.000000 H
   H182       1.0     0.147063      0.525110      0.559610     Biso  1.000000 H
   H183       1.0     0.149520      0.773820      0.548797     Biso  1.000000 H
   H184       1.0     0.092160      0.700239      0.532819     Biso  1.000000 H
   H185       1.0     0.279339      0.823811      0.509128     Biso  1.000000 H
   H186       1.0     0.320711      0.916342      0.515058     Biso  1.000000 H
   H187       1.0     0.303415      0.539557      0.578173     Biso  1.000000 H
   H188       1.0     0.216041      0.468258      0.572541     Biso  1.000000 H
   H189       1.0     0.086942      0.823506      0.506824     Biso  1.000000 H
   H190       1.0     0.107468      0.871963      0.531732     Biso  1.000000 H
   H191       1.0     0.170346      0.661540      0.548240     Biso  1.000000 H
   H192       1.0     0.240045      0.649958      0.541508     Biso  1.000000 H
   H193       1.0     0.395350      0.705499      0.557984     Biso  1.000000 H
   H194       1.0     0.431737      0.657260      0.566706     Biso  1.000000 H
   H195       1.0     0.157996      1.032762      0.567260     Biso  1.000000 H
   H196       1.0     0.101534      0.937784      0.570095     Biso  1.000000 H
   H197       1.0     0.292983      0.853402      0.552224     Biso  1.000000 H
   H198       1.0     0.316546      0.836785      0.577737     Biso  1.000000 H
   H199       1.0     0.192336      0.733114      0.606787     Biso  1.000000 H
   H200       1.0     0.198615      0.682180      0.584934     Biso  1.000000 H
   H201       1.0     0.105649      0.834240      0.585270     Biso  1.000000 H
   H202       1.0     0.178397      0.890937      0.571681     Biso  1.000000 H
   H203       1.0     0.451506      1.013720      0.600123     Biso  1.000000 H
   H204       1.0     0.534152      1.014591      0.594037     Biso  1.000000 H
   H205       1.0     0.368459      0.837128      0.670530     Biso  1.000000 H
   H206       1.0     0.320681      0.825006      0.644851     Biso  1.000000 H
   H207       1.0     0.063526      0.822521      0.624789     Biso  1.000000 H
   H208       1.0     0.100445      0.912341      0.625782     Biso  1.000000 H
   H209       1.0     0.369982      0.972598      0.646428     Biso  1.000000 H
   H210       1.0     0.346754      1.034134      0.634430     Biso  1.000000 H
   H211       1.0     0.355015      0.780535      0.613154     Biso  1.000000 H
   H212       1.0     0.380073      0.735089      0.594083     Biso  1.000000 H
   H213       1.0    -0.025537      0.920348      0.616570     Biso  1.000000 H
   H214       1.0     0.057655      0.980892      0.605494     Biso  1.000000 H
   H215       1.0     0.185517      0.830604      0.627872     Biso  1.000000 H
   H216       1.0     0.273203      0.893143      0.628525     Biso  1.000000 H
   H217       1.0     0.636975      0.562947      0.453573     Biso  1.000000 H
   H218       1.0     0.692752      0.595074      0.429626     Biso  1.000000 H
   H219       1.0     0.908932      0.638587      0.428281     Biso  1.000000 H
   H220       1.0     0.869326      0.548486      0.434894     Biso  1.000000 H
   H221       1.0     0.460302      0.752982      0.474802     Biso  1.000000 H
   H222       1.0     0.481536      0.723129      0.451222     Biso  1.000000 H
   H223       1.0     0.492441      0.930651      0.444128     Biso  1.000000 H
   H224       1.0     0.486869      0.847724      0.441178     Biso  1.000000 H
   H225       1.0     0.611024      0.722887      0.430792     Biso  1.000000 H
   H226       1.0     0.678479      0.693099      0.434668     Biso  1.000000 H
   H227       1.0     0.861500      1.035999      0.470345     Biso  1.000000 H
   H228       1.0     0.806052      0.945381      0.463917     Biso  1.000000 H
   H229       1.0     0.538255      0.469477      0.477236     Biso  1.000000 H
   H230       1.0     0.492573      0.505842      0.460742     Biso  1.000000 H
   H231       1.0     0.303372      0.669240      0.426935     Biso  1.000000 H
   H232       1.0     0.355620      0.691210      0.450529     Biso  1.000000 H
   H233       1.0     0.685687      0.835377      0.459159     Biso  1.000000 H
   H234       1.0     0.727128      0.839773      0.483323     Biso  1.000000 H
   H235       1.0     1.010633      0.539622      0.501771     Biso  1.000000 H
   H236       1.0     0.969519      0.555705      0.478683     Biso  1.000000 H
   H237       1.0     0.336090      0.834195      0.426062     Biso  1.000000 H
   H238       1.0     0.317911      0.902516      0.438881     Biso  1.000000 H
   H239       1.0     0.633435      0.740969      0.508327     Biso  1.000000 H
   H240       1.0     0.584276      0.725051      0.532640     Biso  1.000000 H
   H241       1.0     0.872594      0.528275      0.529215     Biso  1.000000 H
   H242       1.0     0.837292      0.434599      0.519658     Biso  1.000000 H
   H243       1.0     0.521122      0.941710      0.494168     Biso  1.000000 H
   H244       1.0     0.431739      0.886949      0.499622     Biso  1.000000 H
   H245       1.0     0.732277      0.650805      0.490829     Biso  1.000000 H
   H246       1.0     0.633820      0.611603      0.489064     Biso  1.000000 H
   H247       1.0     0.609519      0.457775      0.539403     Biso  1.000000 H
   H248       1.0     0.654305      0.427781      0.519693     Biso  1.000000 H
   H249       1.0     0.465246      0.732845      0.518879     Biso  1.000000 H
   H250       1.0     0.420099      0.649082      0.503720     Biso  1.000000 H
   H251       1.0     0.859842      0.870556      0.506710     Biso  1.000000 H
   H252       1.0     0.863895      0.815231      0.483734     Biso  1.000000 H
   H253       1.0     0.702454      0.588344      0.562723     Biso  1.000000 H
   H254       1.0     0.674322      0.605959      0.535322     Biso  1.000000 H
   H255       1.0     0.551917      0.837670      0.552666     Biso  1.000000 H
   H256       1.0     0.487154      0.859035      0.542971     Biso  1.000000 H
   H257       1.0     0.829784      0.853372      0.563203     Biso  1.000000 H
   H258       1.0     0.921861      0.928812      0.561606     Biso  1.000000 H
   H259       1.0     0.836578      0.478061      0.588037     Biso  1.000000 H
   H260       1.0     0.798631      0.473737      0.561264     Biso  1.000000 H
   H261       1.0     0.474377      0.967574      0.560039     Biso  1.000000 H
   H262       1.0     0.421759      0.919707      0.534682     Biso  1.000000 H
   H263       1.0     0.701206      0.757401      0.565982     Biso  1.000000 H
   H264       1.0     0.703751      0.794220      0.541469     Biso  1.000000 H
   H265       1.0     1.054407      0.653102      0.593406     Biso  1.000000 H
   H266       1.0     0.965029      0.588459      0.592008     Biso  1.000000 H
   H267       1.0     0.651397      1.012251      0.595706     Biso  1.000000 H
   H268       1.0     0.635244      1.033352      0.567157     Biso  1.000000 H
   H269       1.0     0.769186      0.898679      0.612438     Biso  1.000000 H
   H270       1.0     0.832851      0.956684      0.592465     Biso  1.000000 H
   H271       1.0     0.837123      0.665209      0.561419     Biso  1.000000 H
   H272       1.0     0.819922      0.591049      0.580684     Biso  1.000000 H
   H273       1.0     0.587290      0.838654      0.587764     Biso  1.000000 H
   H274       1.0     0.656019      0.821821      0.569408     Biso  1.000000 H
   H275       1.0     1.001600      1.064399      0.563832     Biso  1.000000 H
   H276       1.0     1.034618      1.012485      0.554568     Biso  1.000000 H
   H277       1.0     0.850528      0.813065      0.624152     Biso  1.000000 H
   H278       1.0     0.882965      0.849508      0.597218     Biso  1.000000 H
   H279       1.0     0.488562      0.801979      0.611935     Biso  1.000000 H
   H280       1.0     0.555174      0.891312      0.620663     Biso  1.000000 H
   H281       1.0     0.987788      1.102087      0.605790     Biso  1.000000 H
   H282       1.0     0.997602      1.165519      0.586444     Biso  1.000000 H
   H283       1.0     0.933117      0.769933      0.615028     Biso  1.000000 H
   H284       1.0     0.973666      0.720660      0.604750     Biso  1.000000 H
   H285       1.0     0.566873      1.024041      0.634428     Biso  1.000000 H
   H286       1.0     0.499973      0.934125      0.643600     Biso  1.000000 H
   H287       1.0     0.909030      1.014510      0.631071     Biso  1.000000 H
   H288       1.0     0.994276      1.034835      0.631023     Biso  1.000000 H
   O1         1.0     0.168602      0.126933      0.453439     Biso  1.000000 O
   O2         1.0     0.670154      0.157394      0.434482     Biso  1.000000 O
   O3         1.0     0.015434      0.232300      0.434006     Biso  1.000000 O
   O4         1.0     0.091225      0.441759      0.438119     Biso  1.000000 O
   O5         1.0     0.219290      0.255488      0.423581     Biso  1.000000 O
   O6         1.0     0.406385      0.496745      0.442809     Biso  1.000000 O
   O7         1.0     0.046725      0.092221      0.501698     Biso  1.000000 O
   O8         1.0    -0.026250      0.268920      0.501382     Biso  1.000000 O
   O9         1.0     0.337451      0.336094      0.482083     Biso  1.000000 O
   O10        1.0     0.491670      0.100861      0.435476     Biso  1.000000 O
   O11        1.0    -0.065911      0.322186      0.453180     Biso  1.000000 O
   O12        1.0     0.076393      0.238751      0.478398     Biso  1.000000 O
   O13        1.0     0.043085     -0.051222      0.482062     Biso  1.000000 O
   O14        1.0    -0.003479      0.443032      0.517768     Biso  1.000000 O
   O15        1.0     0.240652      0.167582      0.501404     Biso  1.000000 O
   O16        1.0    -0.085840     -0.185779      0.455800     Biso  1.000000 O
   O17        1.0     0.090302      0.334498      0.537556     Biso  1.000000 O
   O18        1.0     0.419308      0.476945      0.527888     Biso  1.000000 O
   O19        1.0     0.281322     -0.016697      0.515868     Biso  1.000000 O
   O20        1.0    -0.019856      0.253658      0.569480     Biso  1.000000 O
   O21        1.0     0.324210      0.372479      0.561488     Biso  1.000000 O
   O22        1.0     0.268466     -0.013378      0.573310     Biso  1.000000 O
   O23        1.0    -0.076399      0.368668      0.564054     Biso  1.000000 O
   O24        1.0     0.185690      0.265649      0.534883     Biso  1.000000 O
   O25        1.0     0.535334      0.170101      0.563604     Biso  1.000000 O
   O26        1.0     0.049947      0.498581      0.612381     Biso  1.000000 O
   O27        1.0     0.508128      0.642557      0.550331     Biso  1.000000 O
   O28        1.0     0.230013      0.123612      0.551685     Biso  1.000000 O
   O29        1.0     0.064177      0.312427      0.620697     Biso  1.000000 O
   O30        1.0     0.619871      0.674894      0.592011     Biso  1.000000 O
   O31        1.0     0.291612      0.101844      0.614861     Biso  1.000000 O
   O32        1.0     0.158797      0.219527      0.621848     Biso  1.000000 O
   O33        1.0     0.683840      0.814209      0.623430     Biso  1.000000 O
   O34        1.0     0.478453      0.183827      0.616453     Biso  1.000000 O
   O35        1.0     0.400124      0.849465      0.702919     Biso  1.000000 O
   O36        1.0     0.296459      0.236105      0.593934     Biso  1.000000 O
   O37        1.0     0.672805      0.022131      0.451960     Biso  1.000000 O
   O38        1.0     0.862130      0.112054      0.420737     Biso  1.000000 O
   O39        1.0     0.683453      0.394991      0.443170     Biso  1.000000 O
   O40        1.0     0.540174      0.392148      0.427442     Biso  1.000000 O
   O41        1.0     0.849419      0.369048      0.425868     Biso  1.000000 O
   O42        1.0     0.884849      0.491909      0.456291     Biso  1.000000 O
   O43        1.0     0.762873      0.144628      0.488751     Biso  1.000000 O
   O44        1.0     0.452936      0.202955      0.452828     Biso  1.000000 O
   O45        1.0     0.724556      0.486426      0.488356     Biso  1.000000 O
   O46        1.0     0.885714      0.108794      0.495550     Biso  1.000000 O
   O47        1.0     0.380202      0.285360      0.443020     Biso  1.000000 O
   O48        1.0     0.589260      0.253835      0.493125     Biso  1.000000 O
   O49        1.0     0.851307     -0.034389      0.518961     Biso  1.000000 O
   O50        1.0     0.509913      0.384593      0.491537     Biso  1.000000 O
   O51        1.0     0.719402      0.298662      0.460061     Biso  1.000000 O
   O52        1.0     0.622473     -0.058284      0.506743     Biso  1.000000 O
   O53        1.0     0.356543      0.140600      0.491192     Biso  1.000000 O
   O54        1.0     0.812128      0.329681      0.504584     Biso  1.000000 O
   O55        1.0     0.653271      0.080254      0.532794     Biso  1.000000 O
   O56        1.0     0.651482      0.322538      0.562256     Biso  1.000000 O
   O57        1.0     0.759328      0.267986      0.549649     Biso  1.000000 O
   O58        1.0     0.740963     -0.022982      0.545557     Biso  1.000000 O
   O59        1.0     0.403871      0.166941      0.540149     Biso  1.000000 O
   O60        1.0     0.530733      0.105866      0.516489     Biso  1.000000 O
   O61        1.0     0.798311      0.102416      0.577124     Biso  1.000000 O
   O62        1.0     0.720269      0.636496      0.614184     Biso  1.000000 O
   O63        1.0     0.724878      0.260225      0.615257     Biso  1.000000 O
   O64        1.0     0.835044      0.198040      0.617628     Biso  1.000000 O
   O65        1.0     0.678065      0.488238      0.604123     Biso  1.000000 O
   O66        1.0     0.909463      0.508712      0.607872     Biso  1.000000 O
   O67        1.0     0.716034      0.031645      0.620223     Biso  1.000000 O
   O68        1.0     0.619449      0.320970      0.610498     Biso  1.000000 O
   O69        1.0     0.868856      0.585261      0.639501     Biso  1.000000 O
   O70        1.0     0.948765      0.199807      0.648129     Biso  1.000000 O
   O71        1.0     0.772735      0.753127      0.646673     Biso  1.000000 O
   O72        1.0     0.557903      0.111701      0.640490     Biso  1.000000 O
   O73        1.0     0.118390      0.601239      0.446865     Biso  1.000000 O
   O74        1.0     0.489752      0.653202      0.434699     Biso  1.000000 O
   O75        1.0    -0.013015      0.739461      0.435954     Biso  1.000000 O
   O76        1.0     0.001337      1.020421      0.440940     Biso  1.000000 O
   O77        1.0     0.159970      0.738642      0.421011     Biso  1.000000 O
   O78        1.0     0.155037      0.979883      0.440330     Biso  1.000000 O
   O79        1.0     0.165838      0.496477      0.499409     Biso  1.000000 O
   O80        1.0     0.083921      0.745580      0.479784     Biso  1.000000 O
   O81        1.0     0.314774      0.982274      0.439259     Biso  1.000000 O
   O82        1.0     0.206375      0.349132      0.455836     Biso  1.000000 O
   O83        1.0    -0.167232      0.642936      0.486578     Biso  1.000000 O
   O84        1.0     0.226498      0.753051      0.481964     Biso  1.000000 O
   O85        1.0     0.347984      0.546564      0.508078     Biso  1.000000 O
   O86        1.0    -0.116060      0.723354      0.530128     Biso  1.000000 O
   O87        1.0     0.272778      0.656363      0.505022     Biso  1.000000 O
   O88        1.0     0.284695      0.515881      0.458876     Biso  1.000000 O
   O89        1.0    -0.033260      0.639923      0.537647     Biso  1.000000 O
   O90        1.0     0.415789      1.026220      0.479909     Biso  1.000000 O
   O91        1.0     0.116770      0.466812      0.562820     Biso  1.000000 O
   O92        1.0     0.147396      0.732563      0.536906     Biso  1.000000 O
   O93        1.0     0.326396      0.868392      0.517305     Biso  1.000000 O
   O94        1.0     0.267754      0.480179      0.578352     Biso  1.000000 O
   O95        1.0     0.110990      0.880030      0.513348     Biso  1.000000 O
   O96        1.0     0.198076      0.631633      0.554780     Biso  1.000000 O
   O97        1.0     0.379432      0.656642      0.567152     Biso  1.000000 O
   O98        1.0     0.106176      0.989599      0.573039     Biso  1.000000 O
   O99        1.0     0.285633      0.857420      0.569966     Biso  1.000000 O
   O100       1.0     0.161813      0.684709      0.597007     Biso  1.000000 O
   O101       1.0     0.121875      0.849923      0.567046     Biso  1.000000 O
   O102       1.0     0.492523      1.024890      0.587880     Biso  1.000000 O
   O103       1.0     0.373033      0.855327      0.652653     Biso  1.000000 O
   O104       1.0     0.115936      0.869436      0.622861     Biso  1.000000 O
   O105       1.0     0.371609      1.001859      0.631217     Biso  1.000000 O
   O106       1.0     0.381454      0.785863      0.597033     Biso  1.000000 O
   O107       1.0     0.029858      0.971906      0.621090     Biso  1.000000 O
   O108       1.0     0.241090      0.835078      0.628561     Biso  1.000000 O
   O109       1.0     0.689242      0.608296      0.447712     Biso  1.000000 O
   O110       1.0     0.866684      0.587093      0.423060     Biso  1.000000 O
   O111       1.0     0.459226      0.758753      0.456443     Biso  1.000000 O
   O112       1.0     0.505792      0.899945      0.432528     Biso  1.000000 O
   O113       1.0     0.667871      0.739357      0.429974     Biso  1.000000 O
   O114       1.0     0.850396      0.997988      0.457707     Biso  1.000000 O
   O115       1.0     0.539228      0.519505      0.471370     Biso  1.000000 O
   O116       1.0     0.301743      0.652196      0.444282     Biso  1.000000 O
   O117       1.0     0.712206      0.870613      0.472946     Biso  1.000000 O
   O118       1.0     1.013793      0.578932      0.489851     Biso  1.000000 O
   O119       1.0     0.316763      0.847211      0.441005     Biso  1.000000 O
   O120       1.0     0.630831      0.771791      0.522726     Biso  1.000000 O
   O121       1.0     0.823980      0.477274      0.524530     Biso  1.000000 O
   O122       1.0     0.468517      0.918816      0.485487     Biso  1.000000 O
   O123       1.0     0.682081      0.645450      0.499585     Biso  1.000000 O
   O124       1.0     0.606618      0.409577      0.531012     Biso  1.000000 O
   O125       1.0     0.438001      0.707489      0.503055     Biso  1.000000 O
   O126       1.0     0.848313      0.816075      0.501693     Biso  1.000000 O
   O127       1.0     0.657989      0.570165      0.549538     Biso  1.000000 O
   O128       1.0     0.506912      0.819072      0.540110     Biso  1.000000 O
   O129       1.0     0.885623      0.880715      0.570459     Biso  1.000000 O
   O130       1.0     0.801405      0.495006      0.578788     Biso  1.000000 O
   O131       1.0     0.478518      0.943096      0.542368     Biso  1.000000 O
   O132       1.0     0.730002      0.809235      0.557546     Biso  1.000000 O
   O133       1.0     1.002529      0.645958      0.586346     Biso  1.000000 O
   O134       1.0     0.610083      1.008666      0.583269     Biso  1.000000 O
   O135       1.0     0.808974      0.955191      0.608718     Biso  1.000000 O
   O136       1.0     0.817085      0.641637      0.578346     Biso  1.000000 O
   O137       1.0     0.616523      0.840471      0.570941     Biso  1.000000 O
   O138       1.0     0.991670      1.022748      0.550379     Biso  1.000000 O
   O139       1.0     0.895564      0.826097      0.612915     Biso  1.000000 O
   O140       1.0     0.543459      0.837640      0.616942     Biso  1.000000 O
   O141       1.0     1.011392      1.123410      0.589430     Biso  1.000000 O
   O142       1.0     0.957454      0.735447      0.620113     Biso  1.000000 O
   O143       1.0     0.557127      0.973206      0.640289     Biso  1.000000 O
   O144       1.0     0.963337      1.063677      0.633881     Biso  1.000000 O
